pglib_opf_case197_snem/pglib_opf_case197_snem_3regions.m
% -------------------------------------------------------------------------
% Partitioned MATPOWER Case File
% Copyright (c) 2025 Milad Hasanzadeh
% Generated on: 2026-06-09
% This file contains partitioned data for 3 regions


% -------------------- mpc_regionR1 --------------------

mpc_regionR1.version = '2';
mpc_regionR1.baseMVA = 100.0000;
mpc_regionR1.bus = [
%	bus_i       type        Pd          Qd          Gs          Bs          area        Vm          Va          baseKV      zone        Vmax        Vmin        
	 1	 2	 0	 0	 0	 0	 5	 1	 0	 13.8	 1	 1.1	 0.9;
	 2	 2	 0	 0	 0	 0	 5	 1	 0	 13.8	 1	 1.1	 0.9;
	 3	 2	 0	 0	 0	 0	 5	 1	 0	 13.8	 1	 1.1	 0.9;
	 4	 2	 0	 0	 0	 0	 5	 1	 0	 11	 1	 1.1	 0.9;
	 5	 2	 1.43784302386	 0	 0	 0	 5	 1	 0	 13.8	 1	 1.1	 0.9;
	 6	 2	 0	 0	 0	 0	 5	 1	 0	 11	 1	 1.1	 0.9;
	 7	 1	-7.48757228344	 0	 0	 0	 5	 1	 0	 0.69	 1	 1.1	 0.9;
	 8	 1	 0	 0	 0	 0	 5	 1	 0	 22	 1	 1.1	 0.9;
	 9	 2	 0	 0	 0	 0	 5	 1	 0	 1	 1	 1.1	 0.9;
	 10	 1	 0	 0	 0	 0	 5	 1	 0	 110	 1	 1.1	 0.9;
	 11	 1	 0	 0	 0	 0	 5	 1	 0	 110	 1	 1.1	 0.9;
	 12	 1	 0	 0	 0	 0	 5	 1	 0	 110	 1	 1.1	 0.9;
	 13	 1	 0	 0	 0	 0	 5	 1	 0	 110	 1	 1.1	 0.9;
	 14	 1	 0	 0	 0	 0	 5	 1	 0	 110	 1	 1.1	 0.9;
	 15	 1	 0	 0	 0	 0	 5	 1	 0	 110	 1	 1.1	 0.9;
	 16	 1	 0	 0	 0	 0	 5	 1	 0	 110	 1	 1.1	 0.9;
	 17	 1	 0	 0	 0	 0	 5	 1	 0	 110	 1	 1.1	 0.9;
	 18	 1	 0	 0	 0	 0	 5	 1	 0	 110	 1	 1.1	 0.9;
	 19	 1	 0	 0	 0	 0	 5	 1	 0	 110	 1	 1.1	 0.9;
	 20	 1	 0	 0	 0	 30.2475361833	 5	 1	 0	 110	 1	 1.1	 0.9;
	 21	 1	 0	 0	 0	 0	 5	 1	 0	 110	 1	 1.1	 0.9;
	 22	 1	 0	 0	 0	 29.8942327662	 5	 1	 0	 110	 1	 1.1	 0.9;
	 23	 1	 0	 0	 0	 0	 5	 1	 0	 110	 1	 1.1	 0.9;
	 24	 1	 0	 0	 0	 0	 5	 1	 0	 110	 1	 1.1	 0.9;
	 25	 1	 0	 0	 0	 0	 5	 1	 0	 110	 1	 1.1	 0.9;
	 26	 1	 0	 0	 0	 0	 5	 1	 0	 110	 1	 1.1	 0.9;
	 27	 1	 0	 0	 0	 0	 5	 1	 0	 110	 1	 1.1	 0.9;
	 28	 1	 0	 0	 0	 0	 5	 1	 0	 110	 1	 1.1	 0.9;
	 29	 1	 0.844463851361	 0.811486859629	 0	 0	 5	 1	 0	 110	 1	 1.1	 0.9;
	 30	 1	 0	 0	 0	 0	 5	 1	 0	 110	 1	 1.1	 0.9;
	 31	 1	 0	 0	 0	 0	 5	 1	 0	 110	 1	 1.1	 0.9;
	 32	 1	 0	 0	 0	 0	 5	 1	 0	 220	 1	 1.1	 0.9;
	 33	 1	 0	 0	 0	 0	 5	 1	 0	 220	 1	 1.1	 0.9;
	 34	 1	 0	 0	 0	 0	 5	 1	 0	 220	 1	 1.1	 0.9;
	 35	 1	 0	 0	 0	 0	 5	 1	 0	 220	 1	 1.1	 0.9;
	 36	 1	 0	 0	 0	 0	 5	 1	 0	 220	 1	 1.1	 0.9;
	 37	 1	 0	 0	 0	 0	 5	 1	 0	 220	 1	 1.1	 0.9;
	 38	 1	 0	 0	 0	 0	 5	 1	 0	 220	 1	 1.1	 0.9;
	 39	 1	 0	 0	 0	 0	 5	 1	 0	 220	 1	 1.1	 0.9;
	 40	 1	 0.100036499291	-0.133309902946	 0	 0	 5	 1	 0	 11	 1	 1.1	 0.9;
	 41	 1	 19.957788692	 4.78594959717	 0	 0	 5	 1	 0	 22	 1	 1.1	 0.9;
	 42	 1	 28.1220396346	 17.0941187588	 0	 0	 5	 1	 0	 44	 1	 1.1	 0.9;
	 43	 1	 2.29266869862	-0.219341768899	 0	 0	 5	 1	 0	 22	 1	 1.1	 0.9;
	 44	 1	-5.28103313928	 1.57365585479	 0	 0	 5	 1	 0	 11	 1	 1.1	 0.9;
	 45	 1	 0.595466476637	 0.164574361555	 0	 0	 5	 1	 0	 22	 1	 1.1	 0.9;
	 46	 1	 2.86565043063	 0.918062184471	 0	 0	 5	 1	 0	 22	 1	 1.1	 0.9;
	 47	 1	 0.102155048288	-0.0762418273165	 0	 0	 5	 1	 0	 11	 1	 1.1	 0.9;
	 48	 1	 14.8939685162	 5.50440336707	 0	 0	 5	 1	 0	 22	 1	 1.1	 0.9;
	 49	 1	 12.7940563151	 4.23152802724	 0	 0	 5	 1	 0	 22	 1	 1.1	 0.9;
	 50	 1	 32.8164347707	 4.93834843893	 0	 0	 5	 1	 0	 22	 1	 1.1	 0.9;
	 51	 1	 4.96928669102	 2.31230359605	 0	 0	 5	 1	 0	 11	 1	 1.1	 0.9;
	 52	 1	 11.8889887202	 2.24300578809	 0	 0	 5	 1	 0	 22	 1	 1.1	 0.9;
	 53	 1	 35.35571077	 11.4391733684	 0	 0	 5	 1	 0	 22	 1	 1.1	 0.9;
	 54	 1	 37.0487818044	 13.5631675561	 0	 0	 5	 1	 0	 22	 1	 1.1	 0.9;
	 55	 1	 0	 0	 0	 0	 5	 1	 0	 22	 1	 1.1	 0.9;
	 56	 1	 0	 0	 0	 0	 5	 1	 0	 22	 1	 1.1	 0.9;
	 57	 2	 0	 0	 0	 0	 5	 1	 0	 11	 1	 1.1	 0.9;
	 58	 2	 0	 0	 0	 0	 5	 1	 0	 11	 1	 1.1	 0.9;
];

mpc_regionR1.gen = [
%	bus         Pg          Qg          Qmax        Qmin        Vg          mBase       status      Pmax        Pmin        Pc1         Pc2         Qc1min      Qc1max      Qc2min      Qc2max      ramp_agc    ramp_10     ramp_30     ramp_q      apf         
	 1	 75	 10	 110	-90	 1	 147.696965935	 1	 150	 0;
	 2	 75	 5	 120	-110	 1	 147.170128863	 1	 150	 0;
	 3	 50	 10	 60	-40	 1	 99.8268229078	 1	 100	 0;
	 4	 30	 0	 20	-20	 1	 59.56099006	 1	 60	 0;
	 5	 65	 5	 90	-80	 1	 123.244468958	 1	 130	 0;
	 6	 20	 0	 20	-20	 1	 37.8683050583	 1	 40	 0;
	 9	 45	-5	 10	-20	 1	 83.725310623	 1	 90	 0;
	 57	 35	 5	 30	-20	 1	 65.7624427797	 1	 70	 0;
	 58	 20	 5	 20	-10	 1	 36.1447293924	 1	 40	 0;
];

mpc_regionR1.branch = [
%	fbus        tbus        r           x           b           rateA       rateB       rateC       ratio       angle       status      angmin      angmax      
	 10	 13	 0.00834450528496	 0.0371057756822	 0.00388866725242	 160	 160	 160	 0	 0	 1	-30	 30;
	 11	 13	 0.006612602031	 0.017109146624	 0.00165633454293	 115	 115	 115	 0	 0	 1	-30	 30;
	 11	 13	 0.00550651928481	 0.0149698399927	 0.00172714817226	 119	 119	 119	 0	 0	 1	-30	 30;
	 12	 11	 0.01393972708	 0.102926742936	 0.0123074726317	 218	 218	 218	 0	 0	 1	-30	 30;
	 13	 14	 0.02545334659	 0.0721554038461	 0.00680053036105	 122	 122	 122	 0	 0	 1	-30	 30;
	 14	 28	 0.0299991099129	 0.0854487027202	 0.00844874817832	 122	 122	 122	 0	 0	 1	-30	 30;
	 15	 11	 0.0446317172529	 0.0702443516722	 0.00557138734468	 85	 85	 85	 0	 0	 1	-30	 30;
	 16	 22	 0.00221781807094	 0.0150542312874	 0.00163558931096	 207	 207	 207	 0	 0	 1	-30	 30;
	 17	 22	 0.00979486179023	 0.0249472030214	 0.00296859624928	 114	 114	 114	 0	 0	 1	-30	 30;
	 17	 23	 0.022569879982	 0.0598841777916	 0.00660973093147	 117	 117	 117	 0	 0	 1	-30	 30;
	 18	 19	 0.0368750920058	 0.0712716392955	 0.0162320841232	 97	 97	 97	 0	 0	 1	-30	 30;
	 18	 20	 0.133172727607	 0.24271488602	 0.0159793607747	 93	 93	 93	 0	 0	 1	-30	 30;
	 18	 31	 0.0125014987677	 0.0906216808787	 0.0340298995427	 215	 215	 215	 0	 0	 1	-30	 30;
	 19	 20	 0.100609148637	 0.176248238354	 0.0157835522057	 91	 91	 91	 0	 0	 1	-30	 30;
	 20	 21	 0.00386886836307	 0.0103769073008	 0.00115304896291	 118	 118	 118	 0	 0	 1	-30	 30;
	 20	 22	 0.0548456849238	 0.146051026867	 0.0158653891447	 117	 117	 117	 0	 0	 1	-30	 30;
	 20	 29	 0.0322012007642	 0.0849837029603	 0.0090492049762	 117	 117	 117	 0	 0	 1	-30	 30;
	 21	 23	 0.0326571041771	 0.0841055311883	 0.00955746842655	 115	 115	 115	 0	 0	 1	-30	 30;
	 22	 24	 0.00948450876777	 0.050407684576	 0.00622709612376	 178	 178	 178	 0	 0	 1	-30	 30;
	 22	 25	 0.0213521373288	 0.0831676316532	 0.00938905109974	 148	 148	 148	 0	 0	 1	-30	 30;
	 22	 26	 0.00648433744151	 0.0344385667948	 0.00404136947009	 178	 178	 178	 0	 0	 1	-30	 30;
	 22	 26	 0.00693898262637	 0.0326422499585	 0.00425079271419	 166	 166	 166	 0	 0	 1	-30	 30;
	 24	 25	 0.0123307894492	 0.032810616942	 0.00347130369578	 117	 117	 117	 0	 0	 1	-30	 30;
	 27	 28	 0.0301156643856	 0.0796046618723	 0.00849322719584	 117	 117	 117	 0	 0	 1	-30	 30;
	 28	 30	 0.0438537854483	 0.117773755721	 0.0107526255948	 118	 118	 118	 0	 0	 1	-30	 30;
	 32	 36	 0.00360884330953	 0.0272013538646	 0.052577014936	 440	 440	 440	 0	 0	 1	-30	 30;
	 33	 36	 0.00368515181838	 0.02729184471	 0.0542524999439	 435	 435	 435	 0	 0	 1	-30	 30;
	 34	 36	 0.00172089511687	 0.0135833580207	 0.0253619957311	 453	 453	 453	 0	 0	 1	-30	 30;
	 35	 36	 0.00516263196069	 0.0401278502407	 0.0723725984573	 448	 448	 448	 0	 0	 1	-30	 30;
	 36	 39	 0.00871177811824	 0.0675740885568	 0.121383383133	 448	 448	 448	 0	 0	 1	-30	 30;
	 36	 39	 0.00802602507801	 0.0674731232691	 0.117713203229	 470	 470	 470	 0	 0	 1	-30	 30;
	 37	 39	 0.00683352590427	 0.0387733328807	 0.0597080006736	 370	 370	 370	 0	 0	 1	-30	 30;
	 39	 57	 0.0133455107097	 0.200680514427	 0.0495893101978	 158	 158	 158	 1.0681	 0	 1	-30	 30;
	 38	 39	 0.00383756139899	 0.0192588914578	 0.0348010960884	 344	 344	 344	 0	 0	 1	-30	 30;
	 39	 20	 0.0116068776357	 0.140779613029	 0.0633475515843	 224	 224	 224	 1.01131	 0	 1	-30	 30;
	 7	 55	 0.00953248890599	 0.0976791594336	-5e-07	 322	 322	 322	 1.01449275362	 0	 1	-30	 30;
	 8	 9	 0.0106288813461	 0.117680721349	-5e-07	 268	 268	 268	 0.959595959596	 0	 1	-30	 30;
	 11	 42	 0.0227478390924	 0.552189815384	-5e-07	 58	 58	 58	 0.9875	 0	 1	-30	 30;
	 11	 42	 0.0222802043221	 0.535390184378	-5e-07	 59	 59	 59	 0.9875	 0	 1	-30	 30;
	 12	 43	 0.0195879369143	 0.50262311179	-5e-07	 63	 63	 63	 1.01154	 0	 1	-30	 30;
	 12	 43	 0.0135180096767	 0.495316724224	-5e-07	 64	 64	 64	 1.0116	 0	 1	-30	 30;
	 12	 44	 0.0577339991314	 0.950869187511	-5e-07	 34	 34	 34	 1.0454	 0	 1	-30	 30;
	 12	 44	 0.055209133621	 0.933929222836	-5e-07	 34	 34	 34	 1.0454	 0	 1	-30	 30;
	 14	 45	 0.03425957737	 0.575543100686	-5e-07	 55	 55	 55	 1	 0	 1	-30	 30;
	 15	 46	 0.110024274839	 1.33068123553	-5e-07	 24	 24	 24	 0.976	 0	 1	-30	 30;
	 15	 47	 0.080509125714	 1.1480548445	-5e-07	 28	 28	 28	 1	 0	 1	-30	 30;
	 17	 6	 0.00732376687037	 0.226450992076	-5e-07	 140	 140	 140	 1.0773	 0	 1	-30	 30;
	 18	 48	 0.0142223943406	 0.486981815144	-5e-07	 65	 65	 65	 1	 0	 1	-30	 30;
	 18	 48	 0.0141277478943	 0.474006876834	-5e-07	 67	 67	 67	 1	 0	 1	-30	 30;
	 19	 49	 0.0254684135815	 0.384457039646	-5e-07	 82	 82	 82	 0.9875	 0	 1	-30	 30;
	 19	 49	 0.0269802282587	 0.405389597159	-5e-07	 78	 78	 78	 0.975	 0	 1	-30	 30;
	 20	 50	 0.0131461361513	 0.323965155563	-5e-07	 98	 98	 98	 1.01362	 0	 1	-30	 30;
	 20	 50	 0.0128083302407	 0.31119278951	-5e-07	 102	 102	 102	 1.01362	 0	 1	-30	 30;
	 21	 51	 0.0191450692851	 0.571359644646	-5e-07	 56	 56	 56	 1.0125	 0	 1	-30	 30;
	 21	 51	 0.0198637862496	 0.613492127221	-5e-07	 52	 52	 52	 1.0125	 0	 1	-30	 30;
	 23	 52	 0.01429953662	 0.445263153061	-5e-07	 71	 71	 71	 0.98636	 0	 1	-30	 30;
	 23	 52	 0.0138235162498	 0.54509641662	-5e-07	 58	 58	 58	 0.98636	 0	 1	-30	 30;
	 24	 53	 0.0196101853489	 0.500290354249	-5e-07	 64	 64	 64	 0.975	 0	 1	-30	 30;
	 24	 53	 0.0183435195747	 0.487525330807	-5e-07	 65	 65	 65	 0.975	 0	 1	-30	 30;
	 24	 53	 0.0143708840273	 0.533604117352	-5e-07	 60	 60	 60	 0.975	 0	 1	-30	 30;
	 25	 40	 0.0290935180671	 0.625318664805	-5e-07	 51	 51	 51	 1	 0	 1	-30	 30;
	 25	 40	 0.0295133979923	 0.592716803482	-5e-07	 54	 54	 54	 0.975	 0	 1	-30	 30;
	 26	 54	 0.0133025353251	 0.508686917432	-5e-07	 63	 63	 63	 0.9625	 0	 1	-30	 30;
	 26	 54	 0.0134689722667	 0.515581078614	-5e-07	 62	 62	 62	 0.9625	 0	 1	-30	 30;
	 27	 41	 0.0262331016249	 0.386089733051	-5e-07	 82	 82	 82	 0.9625	 0	 1	-30	 30;
	 27	 41	 0.0276127085623	 0.416311396601	-5e-07	 76	 76	 76	 0.9625	 0	 1	-30	 30;
	 31	 8	 9.9999998929e-10	 0.169913077972	-5e-07	 186	 186	 186	 1	 0	 1	-30	 30;
	 31	 55	 0.00604270965196	 0.231666899254	-5e-07	 137	 137	 137	 1	 0	 1	-30	 30;
	 32	 1	 0.00175801858358	 0.106427188492	-5e-07	 297	 297	 297	 1.0909	 0	 1	-30	 30;
	 33	 2	 0.0022136641459	 0.104453985645	-5e-07	 303	 303	 303	 1.0909	 0	 1	-30	 30;
	 34	 3	 0.0055073760058	 0.190407869449	-5e-07	 166	 166	 166	 1.0909	 0	 1	-30	 30;
	 36	 13	 0.00154489466324	 0.105708358487	-5e-07	 299	 299	 299	 1.0136	 0	 1	-30	 30;
	 36	 13	 0.00142640542455	 0.104482101475	-5e-07	 303	 303	 303	 1.0136	 0	 1	-30	 30;
	 37	 4	 0.0043065692435	 0.205599865424	-5e-07	 154	 154	 154	 1	 0	 1	-30	 30;
	 5	 39	 0.00695209905724	 0.103777769629	 0.0321572798168	 304	 304	 304	 0.936241924913	 0	 1	-30	 30;
	 38	 58	 0.015910460503	 0.333025512913	-5e-07	 95	 95	 95	 1.0681	 0	 1	-30	 30;
	 39	 22	 0.00202715995556	 0.0821328341872	-5e-07	 385	 385	 385	 1.0225	 0	 1	-30	 30;
	 39	 22	 0.00192103817748	 0.081290337552	-5e-07	 389	 389	 389	 1.0225	 0	 1	-30	 30;
	 4	 56	 0.199884573001	 1.11623031298	 0.0126398233283	 28	 28	 28	 1	 0	 1	-30	 30;
];

mpc_regionR1.gencost = [
%	2           startup     shutdown    n           c(n-1)...c0 
	 2	 0	 0	 3	 0	 0.001	 0;
	 2	 0	 0	 3	 0	 0.001	 0;
	 2	 0	 0	 3	 0	 0.001	 0;
	 2	 0	 0	 3	 0	 0.001	 0;
	 2	 0	 0	 3	 0	 0.001	 0;
	 2	 0	 0	 3	 0	 0.001	 0;
	 2	 0	 0	 3	 0	 0.001	 0;
	 2	 0	 0	 3	 0	 0.001	 0;
	 2	 0	 0	 3	 0	 0.001	 0;
];


% -------------------- mpc_regionR2 --------------------

mpc_regionR2.version = '2';
mpc_regionR2.baseMVA = 100.0000;
mpc_regionR2.bus = [
%	bus_i       type        Pd          Qd          Gs          Bs          area        Vm          Va          baseKV      zone        Vmax        Vmin        
	 1	 1	-18.456624726	 0	 0	 10.7958302228	 5	 1	 0	 33	 1	 1.1	 0.9;
	 2	 1	 0	 0	 0	 0	 5	 1	 0	 11.5	 1	 1.1	 0.9;
	 3	 1	 0	 0	 0	 0	 5	 1	 0	 11.5	 1	 1.1	 0.9;
	 4	 1	 0	 0	 0	 0	 5	 1	 0	 11.5	 1	 1.1	 0.9;
	 5	 2	 0	 0	 0	 0	 5	 1	 0	 11.5	 1	 1.1	 0.9;
	 6	 2	 5.34111425835	 1.84528285785	 0	 0	 5	 1	 0	 14.5	 1	 1.1	 0.9;
	 7	 2	 0	 0	 0	 0	 5	 1	 0	 13.2	 1	 1.1	 0.9;
	 8	 1	 0	 0	 0	 0	 5	 1	 0	 6.6	 1	 1.1	 0.9;
	 9	 2	 0	 0	 0	 0	 5	 1	 0	 11	 1	 1.1	 0.9;
	 10	 2	 0	 0	 0	 0	 5	 1	 0	 11	 1	 1.1	 0.9;
	 11	 2	 0	 0	 0	 0	 5	 1	 0	 16	 1	 1.1	 0.9;
	 12	 1	 0	 0	 0	 0	 5	 1	 0	 16	 1	 1.1	 0.9;
	 13	 2	 0	 0	 0	 0	 5	 1	 0	 16	 1	 1.1	 0.9;
	 14	 2	 0	 0	 0	 0	 5	 1	 0	 16	 1	 1.1	 0.9;
	 15	 2	 0	 0	 0	 0	 5	 1	 0	 16	 1	 1.1	 0.9;
	 16	 1	 0	 0	 0	 0	 5	 1	 0	 16	 1	 1.1	 0.9;
	 17	 1	 0	 0	 0	-5.70733361581	 5	 1	 0	 13.8	 1	 1.1	 0.9;
	 18	 1	 0	 0	 0	-6.03779546404	 5	 1	 0	 13.8	 1	 1.1	 0.9;
	 19	 1	 0	 0	 0	 27.5769489619	 5	 1	 0	 110	 1	 1.1	 0.9;
	 20	 1	 0	 0	 0	 0	 5	 1	 0	 110	 1	 1.1	 0.9;
	 21	 1	 109.560738771	 5.56446601437	 0	 0	 5	 1	 0	 110	 1	 1.1	 0.9;
	 22	 1	 0	 0	 0	 0	 5	 1	 0	 110	 1	 1.1	 0.9;
	 23	 1	 0	 0	 0	 0	 5	 1	 0	 110	 1	 1.1	 0.9;
	 24	 1	 0	 0	 0	 0	 5	 1	 0	 110	 1	 1.1	 0.9;
	 25	 1	 0	 0	 0	 0	 5	 1	 0	 110	 1	 1.1	 0.9;
	 26	 1	 0	 0	 0	 0	 5	 1	 0	 110	 1	 1.1	 0.9;
	 27	 1	 0	 0	 0	 0	 5	 1	 0	 110	 1	 1.1	 0.9;
	 28	 1	 0	 0	 0	 0	 5	 1	 0	 110	 1	 1.1	 0.9;
	 29	 1	 25.5331817143	 4.24297217382	 0	 0	 5	 1	 0	 22	 1	 1.1	 0.9;
	 30	 1	 0	 0	 0	 0	 5	 1	 0	 110	 1	 1.1	 0.9;
	 31	 1	 0	 0	 0	 0	 5	 1	 0	 110	 1	 1.1	 0.9;
	 32	 1	 0	 0	 0	 0	 5	 1	 0	 110	 1	 1.1	 0.9;
	 33	 1	 0	 0	 0	 0	 5	 1	 0	 110	 1	 1.1	 0.9;
	 34	 1	 1.24574926804	-0.664264286632	 0	 0	 5	 1	 0	 110	 1	 1.1	 0.9;
	 35	 1	 0	 0	 0	 0	 5	 1	 0	 110	 1	 1.1	 0.9;
	 36	 1	 0	 0	 0	 0	 5	 1	 0	 110	 1	 1.1	 0.9;
	 37	 2	 761.802095829	 94.3982822715	 0	 269.606850442	 5	 1	 0	 220	 1	 1.1	 0.9;
	 38	 1	 0	 0	 0	 0	 5	 1	 0	 220	 1	 1.1	 0.9;
	 39	 1	 0	 0	 0	 0	 5	 1	 0	 220	 1	 1.1	 0.9;
	 40	 1	 9.25709532036	 1.28527849578	 0	 0	 5	 1	 0	 22	 1	 1.1	 0.9;
	 41	 1	 6.8196875433	 1.66570804022	 0	 0	 5	 1	 0	 22	 1	 1.1	 0.9;
	 42	 1	 0	 0	 0	 0	 5	 1	 0	 22	 1	 1.1	 0.9;
	 43	 1	 29.5849414279	 5.38569534337	 0	 0	 5	 1	 0	 22	 1	 1.1	 0.9;
	 44	 1	 5.9921608533	 2.30522543602	 0	 0	 5	 1	 0	 22	 1	 1.1	 0.9;
	 45	 1	 9.06709590132	 2.28521256108	 0	 0	 5	 1	 0	 22	 1	 1.1	 0.9;
	 46	 1	 10.3675748841	-0.0485898785247	 0	 0	 5	 1	 0	 22	 1	 1.1	 0.9;
	 47	 1	 16.1407656257	 3.39817422641	 0	 0	 5	 1	 0	 22	 1	 1.1	 0.9;
	 48	 1	 5.5121708044	-0.297153097662	 0	 0	 5	 1	 0	 22	 1	 1.1	 0.9;
	 49	 1	 1.71129514995	 2.64945633324	 0	 0	 5	 1	 0	 22	 1	 1.1	 0.9;
];

mpc_regionR2.gen = [
%	bus         Pg          Qg          Qmax        Qmin        Vg          mBase       status      Pmax        Pmin        Pc1         Pc2         Qc1min      Qc1max      Qc2min      Qc2max      ramp_agc    ramp_10     ramp_30     ramp_q      apf         
	 5	 40	 10	 50	-30	 1	 72.6031327684	 1	 80	 0;
	 6	 100	 40	 120	-40	 1	 192.647608941	 1	 200	 0;
	 7	 50	 25	 70	-20	 1	 96.002555525	 1	 100	 0;
	 9	 20	 5	 40	-30	 1	 33.7659113865	 1	 40	 0;
	 10	 20	 5	 20	-10	 1	 36.76534479	 1	 40	 0;
	 11	 35	 10	 70	-50	 1	 67.9893259308	 1	 70	 0;
	 13	 35	 15	 70	-40	 1	 68.3699770729	 1	 70	 0;
	 14	 35	 15	 70	-40	 1	 66.635863774	 1	 70	 0;
	 15	 35	 15	 70	-40	 1	 67.2894188494	 1	 70	 0;
	 37	 275	 5	 550	-540	 1	 5.43358585262	 1	 550	 0;
];

mpc_regionR2.branch = [
%	fbus        tbus        r           x           b           rateA       rateB       rateC       ratio       angle       status      angmin      angmax      
	 19	 21	 0.003635470736	 0.00979922927223	 0.00132046023133	 118	 118	 118	 0	 0	 1	-30	 30;
	 19	 34	 0.00817779703513	 0.0166973252526	 0.0016922451392	 100	 100	 100	 0	 0	 1	-30	 30;
	 20	 21	 0.0034524341182	 0.00941777568866	 0.00106530630905	 119	 119	 119	 0	 0	 1	-30	 30;
	 22	 23	 0.00544398463072	 0.018950843333	 0.00130446062224	 138	 138	 138	 0	 0	 1	-30	 30;
	 22	 24	 0.016235662227	 0.0728054892606	 0.0019680678417	 161	 161	 161	 0	 0	 1	-30	 30;
	 22	 32	 0.0394408773044	 0.137952632759	 0.00414441901073	 138	 138	 138	 0	 0	 1	-30	 30;
	 23	 32	 0.0473672257593	 0.159966352393	 0.00395088193268	 135	 135	 135	 0	 0	 1	-30	 30;
	 24	 36	 0.0341895124321	 0.134301567013	 0.0182315273713	 148	 148	 148	 0	 0	 1	-30	 30;
	 25	 28	 0.00546403750034	 0.017164896468	 0.00589143396744	 130	 130	 130	 0	 0	 1	-30	 30;
	 25	 28	 0.00364758650599	 0.0286067479688	 0.000414263237175	 226	 226	 226	 0	 0	 1	-30	 30;
	 26	 27	 0.00467363200054	 0.0184289919588	 0.00245152692877	 149	 149	 149	 0	 0	 1	-30	 30;
	 27	 12	 0.0084303609162	 0.195196638009	 0.0023718655271	 162	 162	 162	 1.04545454545	 0	 1	-30	 30;
	 27	 8	 1.20097991941	 4.03610643111	 0.00927586424873	 8	 8	 8	 1.03147	 0	 1	-30	 30;
	 27	 28	 0.044756923605	 0.128900385602	 0.0126673048162	 123	 123	 123	 0	 0	 1	-30	 30;
	 27	 28	 0.0424748956083	 0.118662413239	 0.0120168671481	 121	 121	 121	 0	 0	 1	-30	 30;
	 27	 30	 0.149471301929	 0.242838080968	 0.0196033250698	 87	 87	 87	 0	 0	 1	-30	 30;
	 28	 32	 0.00517821364049	 0.0257469512591	 0.00295509923136	 171	 171	 171	 0	 0	 1	-30	 30;
	 28	 32	 0.00513029103585	 0.0261527031624	 0.00319174829688	 174	 174	 174	 0	 0	 1	-30	 30;
	 30	 35	 0.107316122925	 0.163455119482	 0.0146145668121	 84	 84	 84	 0	 0	 1	-30	 30;
	 31	 33	 0.000985301995251	 0.00880158392307	 0.0366018740284	 244	 244	 244	 0	 0	 1	-30	 30;
	 31	 25	 0.00159105404253	 0.0147080881206	 0.0439284534166	 249	 249	 249	 0	 0	 1	-30	 30;
	 37	 39	 0.00936215698306	 0.0406372266676	 0.0710654132142	 315	 315	 315	 0	 0	 1	-30	 30;
	 37	 39	 0.0095308059707	 0.0437176421909	 0.0702173933262	 326	 326	 326	 0	 0	 1	-30	 30;
	 38	 13	 0.00534979214151	 0.182977587129	 0.00877871706562	 173	 173	 173	 1.0681	 0	 1	-30	 30;
	 38	 15	 0.0055291704363	 0.184715234765	 0.00860378797939	 171	 171	 171	 1.0681	 0	 1	-30	 30;
	 38	 16	 0.00616940694479	 0.175450423586	 0.00893260457992	 180	 180	 180	 1.0681	 0	 1	-30	 30;
	 38	 39	 0.00596531706803	 0.0270741644934	 0.0483460714225	 323	 323	 323	 0	 0	 1	-30	 30;
	 38	 39	 0.00619035982258	 0.0279026709165	 0.0490064073603	 322	 322	 322	 0	 0	 1	-30	 30;
	 43	 47	 0.0378443095275	 0.0565518260573	 0.00156248425743	 17	 17	 17	 0	 0	 1	-30	 30;
	 43	 47	 0.0390479045201	 0.0570860607866	 0.00166782256778	 17	 17	 17	 0	 0	 1	-30	 30;
	 11	 26	 0.00325528849623	 0.177605506471	-5e-07	 178	 178	 178	 0.95652173913	 0	 1	-30	 30;
	 1	 17	 0.019511938914	 0.386358596284	-5e-07	 82	 82	 82	 0.975	 0	 1	-30	 30;
	 1	 18	 0.0186132788376	 0.369193720572	-5e-07	 86	 86	 86	 0.975	 0	 1	-30	 30;
	 19	 40	 0.0294456702587	 0.607578981626	-5e-07	 52	 52	 52	 1.02556	 0	 1	-30	 30;
	 19	 40	 0.00775979971026	 0.512117724958	-5e-07	 62	 62	 62	 1.02556	 0	 1	-30	 30;
	 23	 41	 0.011936535418	 0.268125728637	-5e-07	 118	 118	 118	 1	 0	 1	-30	 30;
	 23	 41	 0.0115782059556	 0.248462669683	-5e-07	 127	 127	 127	 1	 0	 1	-30	 30;
	 24	 42	 0.059707829617	 0.909811163372	-5e-07	 35	 35	 35	 1.0495	 0	 1	-30	 30;
	 25	 9	 9.9999998929e-10	 0.1898516919	-5e-07	 167	 167	 167	 0.98818	 0	 1	-30	 30;
	 25	 10	 1.00000000384e-09	 0.175186275393	-5e-07	 181	 181	 181	 0.98818	 0	 1	-30	 30;
	 25	 43	 0.00883536152431	 0.504799750417	-5e-07	 63	 63	 63	 1.01278	 0	 1	-30	 30;
	 25	 43	 0.00922483153379	 0.496381389837	-5e-07	 64	 64	 64	 1.01278	 0	 1	-30	 30;
	 25	 43	 0.00889767753646	 0.504412578878	-5e-07	 63	 63	 63	 1.01278	 0	 1	-30	 30;
	 27	 44	 0.023124651936	 0.526926245831	-5e-07	 60	 60	 60	 1.02306	 0	 1	-30	 30;
	 27	 44	 0.0196857482239	 0.531529377662	-5e-07	 60	 60	 60	 1.014	 0	 1	-30	 30;
	 28	 29	 0.00833173281042	 0.49913859691	-5e-07	 64	 64	 64	 1	 0	 1	-30	 30;
	 28	 29	 0.00854339669646	 0.505397961653	-5e-07	 63	 63	 63	 0.84152	 0	 1	-30	 30;
	 30	 49	 0.021036196326	 0.466032206288	-5e-07	 68	 68	 68	 0.9885	 0	 1	-30	 30;
	 31	 45	 0.00650618015764	 0.499831613206	-5e-07	 64	 64	 64	 0.9661	 0	 1	-30	 30;
	 31	 45	 0.00672275358783	 0.528778606827	-5e-07	 60	 60	 60	 0.9661	 0	 1	-30	 30;
	 32	 46	 0.0117018452786	 0.45649309801	-5e-07	 70	 70	 70	 1	 0	 1	-30	 30;
	 32	 46	 0.0174287247903	 0.56814754251	-5e-07	 56	 56	 56	 1	 0	 1	-30	 30;
	 25	 47	 0.00878024260307	 0.501224118171	-5e-07	 64	 64	 64	 0.98722	 0	 1	-30	 30;
	 25	 47	 0.00894075210672	 0.494432873465	-5e-07	 64	 64	 64	 1	 0	 1	-30	 30;
	 35	 48	 0.0540199612628	 0.91642487513	-5e-07	 35	 35	 35	 1	 0	 1	-30	 30;
	 35	 48	 0.0593102772893	 0.900173589987	-5e-07	 36	 36	 36	 0.9887	 0	 1	-30	 30;
	 36	 1	 0.00562341231486	 0.156534653016	-5e-07	 202	 202	 202	 1.0375	 0	 1	-30	 30;
	 36	 1	 0.00536058892374	 0.162540819866	-5e-07	 195	 195	 195	 1.0375	 0	 1	-30	 30;
	 37	 6	 0.00199538310365	 0.07930259815	-5e-07	 399	 399	 399	 0.9885	 0	 1	-30	 30;
	 37	 7	 0.00412387953469	 0.146799734545	-5e-07	 216	 216	 216	 0.9885	 0	 1	-30	 30;
	 19	 2	 0.0113968043285	 0.360638091886	-5e-07	 88	 88	 88	 1.04545454545	 0	 1	-30	 30;
	 19	 5	 0.00613840206529	 0.220063881726	-5e-07	 144	 144	 144	 1.02099090909	 0	 1	-30	 30;
	 19	 3	 0.012007211257	 0.393723073551	-5e-07	 81	 81	 81	 1.04545454545	 0	 1	-30	 30;
	 19	 4	 0.0118454642114	 0.394403574318	-5e-07	 81	 81	 81	 1.04545454545	 0	 1	-30	 30;
	 37	 19	 0.00112986682378	 0.0868732566012	-5e-07	 364	 364	 364	 1	 0	 1	-30	 30;
	 37	 19	 0.00111854510752	 0.0822550507438	-5e-07	 384	 384	 384	 1	 0	 1	-30	 30;
	 37	 20	 0.00108767747575	 0.0789100197398	-5e-07	 401	 401	 401	 1	 0	 1	-30	 30;
	 14	 38	 0.00555227482819	 0.174721994729	 0.00849113625069	 181	 181	 181	 0.936241924913	 0	 1	-30	 30;
	 38	 27	 0.00144022083352	 0.0845584900464	-5e-07	 374	 374	 374	 1.01133	 0	 1	-30	 30;
	 39	 28	 0.00116769434879	 0.0880918321493	-5e-07	 359	 359	 359	 1.01132	 0	 1	-30	 30;
	 39	 28	 0.00119610297044	 0.0839130570605	-5e-07	 377	 377	 377	 1.01132	 0	 1	-30	 30;
];

mpc_regionR2.gencost = [
%	2           startup     shutdown    n           c(n-1)...c0 
	 2	 0	 0	 3	 0	 0.001	 0;
	 2	 100	 0	 3	 0	 12.021005	 0;
	 2	 0	 0	 3	 0	 0.001	 0;
	 2	 0	 0	 3	 0	 0.001	 0;
	 2	 100	 0	 3	 0	 12.021005	 0;
	 2	 0	 0	 3	 0	 0.001	 0;
	 2	 0	 0	 3	 0	 0.001	 0;
	 2	 0	 0	 3	 0	 0.001	 0;
	 2	 0	 0	 3	 0	 0.001	 0;
	 2	 100	 0	 3	 0	 9.921005	 0;
];


% -------------------- mpc_regionR3 --------------------

mpc_regionR3.version = '2';
mpc_regionR3.baseMVA = 100.0000;
mpc_regionR3.bus = [
%	bus_i       type        Pd          Qd          Gs          Bs          area        Vm          Va          baseKV      zone        Vmax        Vmin        
	 1	 2	 0	 0	 0	 0	 5	 1	 0	 11	 1	 1.1	 0.9;
	 2	 2	 0	 0	 0	 0	 5	 1	 0	 11	 1	 1.1	 0.9;
	 3	 2	 0	 0	 0	 0	 5	 1	 0	 11	 1	 1.1	 0.9;
	 4	 2	 0	 0	 0	 0	 5	 1	 0	 11	 1	 1.1	 0.9;
	 5	 2	 0	 0	 0	 0	 5	 1	 0	 11	 1	 1.1	 0.9;
	 6	 2	 0	 0	 0	 0	 5	 1	 0	 11	 1	 1.1	 0.9;
	 7	 2	 0	 0	 0	 0	 5	 1	 0	 11	 1	 1.1	 0.9;
	 8	 2	 0	 0	 0	 0	 5	 1	 0	 11	 1	 1.1	 0.9;
	 9	 2	 0	 0	 0	 0	 5	 1	 0	 18	 1	 1.1	 0.9;
	 10	 2	 0	 0	 0	 0	 5	 1	 0	 18	 1	 1.1	 0.9;
	 11	 3	 0	 0	 0	 0	 5	 1	 0	 18	 1	 1.1	 0.9;
	 12	 1	 0	 0	 0	 0	 5	 1	 0	 110	 1	 1.1	 0.9;
	 13	 1	 0	 0	 0	 0	 5	 1	 0	 110	 1	 1.1	 0.9;
	 14	 1	 0	 0	 0	 0	 5	 1	 0	 110	 1	 1.1	 0.9;
	 15	 1	 0	 0	 0	 0	 5	 1	 0	 110	 1	 1.1	 0.9;
	 16	 1	 0	 0	 0	 0	 5	 1	 0	 110	 1	 1.1	 0.9;
	 17	 1	 0	 0	 0	 0	 5	 1	 0	 110	 1	 1.1	 0.9;
	 18	 1	 0	 0	 0	 0	 5	 1	 0	 110	 1	 1.1	 0.9;
	 19	 1	 0	 0	 0	 0	 5	 1	 0	 110	 1	 1.1	 0.9;
	 20	 1	 0	 0	 0	 39.4429057464	 5	 1	 0	 110	 1	 1.1	 0.9;
	 21	 1	 0	 0	 0	 0	 5	 1	 0	 110	 1	 1.1	 0.9;
	 22	 1	 4.14840343669	 1.22681196274	 0	 0	 5	 1	 0	 33	 1	 1.1	 0.9;
	 23	 1	 0	 0	 0	 0	 5	 1	 0	 110	 1	 1.1	 0.9;
	 24	 1	 0	 0	 0	 0	 5	 1	 0	 110	 1	 1.1	 0.9;
	 25	 1	 0	 0	 0	 0	 5	 1	 0	 110	 1	 1.1	 0.9;
	 26	 1	 0	 0	 0	 0	 5	 1	 0	 110	 1	 1.1	 0.9;
	 27	 1	 0	 0	 0	 0	 5	 1	 0	 110	 1	 1.1	 0.9;
	 28	 1	 0	 0	 0	 0	 5	 1	 0	 110	 1	 1.1	 0.9;
	 29	 1	 0	 0	 0	 0	 5	 1	 0	 110	 1	 1.1	 0.9;
	 30	 1	 0	 0	 0	 0	 5	 1	 0	 110	 1	 1.1	 0.9;
	 31	 1	 0	 0	 0	 0	 5	 1	 0	 110	 1	 1.1	 0.9;
	 32	 1	 0	 0	 0	 0	 5	 1	 0	 110	 1	 1.1	 0.9;
	 33	 1	 0	 0	 0	 0	 5	 1	 0	 110	 1	 1.1	 0.9;
	 34	 1	 0	 0	 0	 0	 5	 1	 0	 110	 1	 1.1	 0.9;
	 35	 1	 0	 0	 0	 0	 5	 1	 0	 110	 1	 1.1	 0.9;
	 36	 1	 0	 0	 0	 0	 5	 1	 0	 110	 1	 1.1	 0.9;
	 37	 1	 0	 0	 0	 0	 5	 1	 0	 110	 1	 1.1	 0.9;
	 38	 1	 6.30917010283	 0.352394917171	 0	 0	 5	 1	 0	 33	 1	 1.1	 0.9;
	 39	 1	 6.3943493002	 0.321420691079	 0	 0	 5	 1	 0	 33	 1	 1.1	 0.9;
	 40	 1	 0	 0	 0	 0	 5	 1	 0	 110	 1	 1.1	 0.9;
	 41	 1	 0	 0	 0	 0	 5	 1	 0	 220	 1	 1.1	 0.9;
	 42	 1	 0	 0	 0	 0	 5	 1	 0	 220	 1	 1.1	 0.9;
	 43	 1	 0	 0	 0	 0	 5	 1	 0	 220	 1	 1.1	 0.9;
	 44	 1	 0	 0	 0	 0	 5	 1	 0	 220	 1	 1.1	 0.9;
	 45	 1	 0	 0	 0	 0	 5	 1	 0	 220	 1	 1.1	 0.9;
	 46	 1	 0	 0	 0	 0	 5	 1	 0	 220	 1	 1.1	 0.9;
	 47	 1	 14.1049076988	 9.04776996574	 0	 0	 5	 1	 0	 6.6	 1	 1.1	 0.9;
	 48	 1	 11.1868502881	 5.3734801524	 0	 0	 5	 1	 0	 6.6	 1	 1.1	 0.9;
	 49	 1	 1.23310786749	 0.521934969552	 0	 0	 5	 1	 0	 6.6	 1	 1.1	 0.9;
	 50	 1	 38.2656446436	 12.0837698976	 0	 0	 5	 1	 0	 33	 1	 1.1	 0.9;
	 51	 1	 15.3479710077	 0.179780361418	 0	 0	 5	 1	 0	 33	 1	 1.1	 0.9;
	 52	 1	 1.12772044054	-0.131104909686	 0	 0	 5	 1	 0	 22	 1	 1.1	 0.9;
	 53	 1	 3.91795778259	 1.12945814219	 0	 0	 5	 1	 0	 22	 1	 1.1	 0.9;
	 54	 1	 0.098455395028	-0.159011451974	 0	 0	 5	 1	 0	 22	 1	 1.1	 0.9;
	 55	 1	 7.00533022556	 0.634266090953	 0	 0	 5	 1	 0	 11	 1	 1.1	 0.9;
	 56	 1	 4.76784311741	-0.357622153863	 0	 0	 5	 1	 0	 11	 1	 1.1	 0.9;
	 57	 1	 6.81737639888	 1.52931806039	 0	 0	 5	 1	 0	 11	 1	 1.1	 0.9;
	 58	 1	 6.35761379468	 1.10483449831	 0	 0	 5	 1	 0	 11	 1	 1.1	 0.9;
	 59	 1	 10.5558431011	 3.5135687363	 0	 0	 5	 1	 0	 11	 1	 1.1	 0.9;
	 60	 1	 7.95474462004	 1.73341208709	 0	 0	 5	 1	 0	 11	 1	 1.1	 0.9;
	 61	 1	 2.91458506392	-0.202324895334	 0	 0	 5	 1	 0	 11	 1	 1.1	 0.9;
	 62	 1	 3.20082082542	-0.0306372322947	 0	 0	 5	 1	 0	 11	 1	 1.1	 0.9;
	 63	 1	 1.23069639581	 0.148527247898	 0	 0	 5	 1	 0	 22	 1	 1.1	 0.9;
	 64	 1	 1.22012735772	 0.141469365238	 0	 0	 5	 1	 0	 22	 1	 1.1	 0.9;
	 65	 1	 2.69741274876	-0.518176212408	 0	 0	 5	 1	 0	 11	 1	 1.1	 0.9;
	 66	 1	 3.66248952774	 0.268230288469	 0	 0	 5	 1	 0	 11	 1	 1.1	 0.9;
	 67	 1	 4.3878279769	 1.24416995375	 0	 0	 5	 1	 0	 11	 1	 1.1	 0.9;
	 68	 1	 11.3146026349	 3.43865919711	 0	 0	 5	 1	 0	 11	 1	 1.1	 0.9;
	 69	 1	 3.43738724451	 1.20643423757	 0	 0	 5	 1	 0	 11	 1	 1.1	 0.9;
	 70	 1	 12.7508150782	 0.933697498767	 0	 0	 5	 1	 0	 22	 1	 1.1	 0.9;
	 71	 1	 10.6750374615	 2.72001893004	 0	 0	 5	 1	 0	 22	 1	 1.1	 0.9;
	 72	 1	 0.268542500051	 0.319257627793	 0	 0	 5	 1	 0	 11	 1	 1.1	 0.9;
	 73	 1	 0	 0	 0	 0	 5	 1	 0	 110	 1	 1.1	 0.9;
	 74	 1	 0	 0	 0	 0	 5	 1	 0	 1	 1	 1.1	 0.9;
	 75	 1	 0	 0	 0	 0	 5	 1	 0	 1	 1	 1.1	 0.9;
	 76	 1	 0	 0	 0	 0	 5	 1	 0	 1	 1	 1.1	 0.9;
	 77	 2	 0	 0	 0	 0	 5	 1	 0	 11	 1	 1.1	 0.9;
	 78	 2	 0	 0	 0	 0	 5	 1	 0	 11	 1	 1.1	 0.9;
	 79	 2	 0	 0	 0	 0	 5	 1	 0	 11	 1	 1.1	 0.9;
	 80	 2	 0	 0	 0	 0	 5	 1	 0	 11	 1	 1.1	 0.9;
	 81	 2	 0	 0	 0	 0	 5	 1	 0	 11	 1	 1.1	 0.9;
	 82	 1	 32.7033081653	 10.6544866268	 0	 0	 5	 1	 0	 33	 1	 1.1	 0.9;
	 83	 1	 49.5337823698	 16.2479222761	 0	 0	 5	 1	 0	 11	 1	 1.1	 0.9;
	 84	 1	 15.7169929211	-4.31763789598	 0	 0	 5	 1	 0	 6.6	 1	 1.1	 0.9;
	 85	 1	 0	 0	 0	 0	 5	 1	 0	 110	 1	 1.1	 0.9;
	 86	 1	 0	 0	 0	 0	 5	 1	 0	 110	 1	 1.1	 0.9;
	 87	 1	 0	 0	 0	 0	 5	 1	 0	 110	 1	 1.1	 0.9;
	 88	 1	 0	 0	 0	 0	 5	 1	 0	 110	 1	 1.1	 0.9;
	 89	 1	 0	 0	 0	 0	 5	 1	 0	 110	 1	 1.1	 0.9;
	 90	 1	 0	 0	 0	 0	 5	 1	 0	 110	 1	 1.1	 0.9;
];

mpc_regionR3.gen = [
%	bus         Pg          Qg          Qmax        Qmin        Vg          mBase       status      Pmax        Pmin        Pc1         Pc2         Qc1min      Qc1max      Qc2min      Qc2max      ramp_agc    ramp_10     ramp_30     ramp_q      apf         
	 1	 10	 5	 20	-10	 1	 16.4278021573	 1	 20	 0;
	 2	 25	 0	 20	-20	 1	 40.33056631	 1	 50	 0;
	 3	 25	 0	 20	-20	 1	 40.0795192	 1	 50	 0;
	 4	 20	 5	 20	-10	 1	 33.6463986922	 1	 40	 0;
	 5	 20	 5	 20	-10	 1	 33.3273031253	 1	 40	 0;
	 6	 20	 5	 20	-10	 1	 34.2333408685	 1	 40	 0;
	 7	 20	 10	 30	-10	 1	 37.7499579499	 1	 40	 0;
	 8	 30	 10	 40	-20	 1	 53.9771218854	 1	 60	 0;
	 9	 85	 10	 70	-50	 1	 169.17400955	 1	 170	 0;
	 10	 90	 5	 80	-70	 1	 175.344738018	 1	 180	 0;
	 11	 85	 10	 80	-60	 1	 168.121105693	 1	 170	 0;
	 77	 20	 0	 20	-20	 1	 32.9465583476	 1	 40	 0;
	 78	 20	-5	 10	-20	 1	 34.0468555721	 1	 40	 0;
	 79	 10	 0	 10	-10	 1	 16.3866927561	 1	 20	 0;
	 80	 20	 5	 20	-10	 1	 32.5552539895	 1	 40	 0;
	 81	 20	 5	 20	-10	 1	 31.9203887789	 1	 40	 0;
];

mpc_regionR3.branch = [
%	fbus        tbus        r           x           b           rateA       rateB       rateC       ratio       angle       status      angmin      angmax      
	 12	 1	 0.0507059526851	 0.686745299128	 0.00135414011457	 46	 46	 46	 1	 0	 1	-30	 30;
	 12	 15	 0.0392573585555	 0.058002956482	 0.00494046371803	 82	 82	 82	 0	 0	 1	-30	 30;
	 12	 73	 0.0300776910052	 0.0518558105006	 0.00394640633369	 90	 90	 90	 0	 0	 1	-30	 30;
	 13	 35	 0.0220924302279	 0.0648336640048	 0.0060613908166	 124	 124	 124	 0	 0	 1	-30	 30;
	 13	 73	 0.0189442508494	 0.057645648069	 0.00509880770957	 127	 127	 127	 0	 0	 1	-30	 30;
	 35	 73	 0.0418895350015	 0.11629788021	 0.0109106452358	 120	 120	 120	 0	 0	 1	-30	 30;
	 14	 16	 0.0219553756497	 0.0790700124031	 0.00969959060365	 141	 141	 141	 0	 0	 1	-30	 30;
	 14	 73	 0.0932669534612	 0.18336831322	 0.0159926383185	 98	 98	 98	 0	 0	 1	-30	 30;
	 14	 16	 0.0219083921358	 0.0856977156766	 0.00959333997972	 148	 148	 148	 0	 0	 1	-30	 30;
	 14	 73	 0.0951405162859	 0.176418324059	 0.0165238766949	 94	 94	 94	 0	 0	 1	-30	 30;
	 17	 21	 0.0113070956447	 0.050853422248	 0.00663802909275	 161	 161	 161	 0	 0	 1	-30	 30;
	 17	 35	 0.0809689857371	 0.159780265158	 0.0563546512737	 98	 98	 98	 0	 0	 1	-30	 30;
	 18	 19	 0.00320447570577	 0.0137512614819	 0.00177820065775	 157	 157	 157	 0	 0	 1	-30	 30;
	 18	 19	 0.00322901010886	 0.0138602282577	 0.00163753939091	 157	 157	 157	 0	 0	 1	-30	 30;
	 18	 19	 0.00161342752121	 0.0114039842253	 0.00120377232681	 212	 212	 212	 0	 0	 1	-30	 30;
	 18	 20	 0.00466756014707	 0.0220930798219	 0.0026082038961	 166	 166	 166	 0	 0	 1	-30	 30;
	 18	 28	 0.0160258609959	 0.0445072908171	 0.00487364297231	 120	 120	 120	 0	 0	 1	-30	 30;
	 18	 29	 0.01882210075	 0.0513597795757	 0.00927028024764	 119	 119	 119	 0	 0	 1	-30	 30;
	 18	 16	 0.0205710355764	 0.0578426182695	 0.00568336299875	 121	 121	 121	 0	 0	 1	-30	 30;
	 19	 20	 0.0035544225969	 0.0115137614379	 0.00130740937202	 132	 132	 132	 0	 0	 1	-30	 30;
	 19	 89	 0.00281675531511	 0.526563840181	 0.0714626713993	 60	 60	 60	 0.9877	 0	 1	-30	 30;
	 19	 16	 0.021964985167	 0.0641314318582	 0.000604994296571	 124	 124	 124	 0	 0	 1	-30	 30;
	 20	 21	 0.00231737132412	 0.0100412761865	 0.00106770930917	 157	 157	 157	 0	 0	 1	-30	 30;
	 21	 26	 0.0160672604064	 0.0437558473473	 0.00468396638525	 119	 119	 119	 0	 0	 1	-30	 30;
	 21	 34	 0.0285963948401	 0.0732199230748	 0.00825107615814	 115	 115	 115	 0	 0	 1	-30	 30;
	 21	 36	 0.00410662239414	 0.0199696988206	 0.00231968507522	 169	 169	 169	 0	 0	 1	-30	 30;
	 21	 37	 0.00390492976941	 0.0187910006352	 0.00242773434621	 168	 168	 168	 0	 0	 1	-30	 30;
	 23	 36	 0.00331615708596	 0.0150896704316	 0.00191441716685	 162	 162	 162	 0	 0	 1	-30	 30;
	 24	 37	 0.00310765717618	 0.0162673099711	 0.0019262018874	 177	 177	 177	 0	 0	 1	-30	 30;
	 25	 26	 0.210973417087	 0.184205018252	 0.0149285869955	 60	 60	 60	 0	 0	 1	-30	 30;
	 26	 70	 0.0403146651823	 0.662383061499	 0.00338165668241	 48	 48	 48	 0.975	 0	 1	-30	 30;
	 27	 28	 0.00558545099989	 0.0156784778318	 0.00159407490014	 121	 121	 121	 0	 0	 1	-30	 30;
	 27	 29	 0.00602572363934	 0.0149021955481	 0.00166519321861	 112	 112	 112	 0	 0	 1	-30	 30;
	 28	 32	 0.0228305687675	 0.0637682046211	 0.0062292029036	 121	 121	 121	 0	 0	 1	-30	 30;
	 29	 30	 0.0467533231498	 0.0446517925232	 0.00376175498135	 63	 63	 63	 0	 0	 1	-30	 30;
	 30	 32	 0.0719883445637	 0.0611633198984	 0.00469509414377	 59	 59	 59	 0	 0	 1	-30	 30;
	 32	 40	 0.0348107242369	 0.0508604577199	 0.00524508606407	 82	 82	 82	 0	 0	 1	-30	 30;
	 33	 40	 0.00326963631808	 0.0145342492605	 0.00145874859141	 160	 160	 160	 0	 0	 1	-30	 30;
	 16	 73	 0.137691854046	 0.279441697138	 0.0236720724191	 99	 99	 99	 0	 0	 1	-30	 30;
	 41	 42	 0.00424138476648	 0.0205666269986	 0.0301809285452	 337	 337	 337	 0	 0	 1	-30	 30;
	 41	 44	 0.0164515101986	 0.0682358937425	 0.113282979366	 306	 306	 306	 0	 0	 1	-30	 30;
	 41	 46	 0.00655462548103	 0.0304432815257	 0.0426581844655	 328	 328	 328	 0	 0	 1	-30	 30;
	 41	 46	 0.00343435743288	 0.0259922985119	 0.0477408341363	 441	 441	 441	 0	 0	 1	-30	 30;
	 42	 44	 0.0110675164723	 0.0520011691326	 0.0856549351765	 330	 330	 330	 0	 0	 1	-30	 30;
	 43	 44	 0.0132215266532	 0.0893400032262	 0.157666756027	 412	 412	 412	 0	 0	 1	-30	 30;
	 43	 44	 0.0145171332656	 0.0938426300478	 0.168644954841	 401	 401	 401	 0	 0	 1	-30	 30;
	 45	 46	 0.0131560796875	 0.0824582268278	 0.142504390296	 393	 393	 393	 0	 0	 1	-30	 30;
	 45	 46	 0.0129197396137	 0.0796015323961	 0.14335068766	 389	 389	 389	 0	 0	 1	-30	 30;
	 2	 73	 0.00552488081702	 0.204241359352	 0.000999194216205	 155	 155	 155	 1	 0	 1	-30	 30;
	 3	 73	 0.00561112386908	 0.2129076695	 8.82184142992e-05	 149	 149	 149	 1	 0	 1	-30	 30;
	 14	 8	 0.00843763616704	 0.200659136226	-5e-07	 158	 158	 158	 1.04545	 0	 1	-30	 30;
	 14	 53	 0.0213060678714	 0.514579037362	-5e-07	 62	 62	 62	 0.964	 0	 1	-30	 30;
	 15	 54	 0.123067366613	 1.52533411147	-5e-07	 21	 21	 21	 1	 0	 1	-30	 30;
	 16	 47	 0.0290235147771	 0.636134454327	-5e-07	 50	 50	 50	 1	 0	 1	-30	 30;
	 16	 47	 0.0214868049498	 0.645020761556	-5e-07	 49	 49	 49	 1	 0	 1	-30	 30;
	 17	 55	 0.0281615511754	 0.625461483213	-5e-07	 51	 51	 51	 1.01222	 0	 1	-30	 30;
	 17	 56	 0.0201050772011	 0.66240904637	-5e-07	 48	 48	 48	 1.01222	 0	 1	-30	 30;
	 19	 82	 0.0067513101057	 0.305115034068	-5e-07	 104	 104	 104	 1.0125	 0	 1	-30	 30;
	 19	 82	 0.00706588606525	 0.298336804449	-5e-07	 106	 106	 106	 1.0125	 0	 1	-30	 30;
	 19	 82	 0.00719841202807	 0.297849430831	-5e-07	 107	 107	 107	 1.0125	 0	 1	-30	 30;
	 20	 50	 0.00700402279582	 0.422563517086	-5e-07	 75	 75	 75	 0.97724	 0	 1	-30	 30;
	 20	 50	 0.00683364557676	 0.392629356985	-5e-07	 81	 81	 81	 0.97724	 0	 1	-30	 30;
	 20	 50	 0.00695451949928	 0.386758330225	-5e-07	 82	 82	 82	 0.97724	 0	 1	-30	 30;
	 20	 74	 9.99999996566e-10	 0.101220519969	-5e-07	 313	 313	 313	 0.97578	 0	 1	-30	 30;
	 20	 75	 9.9999998929e-10	 0.0966365380293	-5e-07	 327	 327	 327	 0.97578	 0	 1	-30	 30;
	 20	 76	 9.99999996566e-10	 0.101442471846	-5e-07	 312	 312	 312	 0.97578	 0	 1	-30	 30;
	 21	 51	 0.0155874284169	 0.400714549992	-5e-07	 79	 79	 79	 1	 0	 1	-30	 30;
	 21	 51	 0.0153935580371	 0.388070154157	-5e-07	 82	 82	 82	 1	 0	 1	-30	 30;
	 23	 61	 0.0215926686041	 0.691785922603	-5e-07	 46	 46	 46	 1	 0	 1	-30	 30;
	 24	 62	 0.0225065820379	 0.665433695637	-5e-07	 48	 48	 48	 1	 0	 1	-30	 30;
	 25	 63	 0.0195789341514	 0.545847475992	-5e-07	 58	 58	 58	 1	 0	 1	-30	 30;
	 25	 64	 0.020011691177	 0.511415508905	-5e-07	 62	 62	 62	 1	 0	 1	-30	 30;
	 27	 22	 0.0160470386159	 0.382427686219	-5e-07	 83	 83	 83	 0.93172	 0	 1	-30	 30;
	 27	 22	 0.0167784369264	 0.381690919358	-5e-07	 83	 83	 83	 0.93172	 0	 1	-30	 30;
	 27	 65	 0.0213258953499	 0.689187095127	-5e-07	 46	 46	 46	 1	 0	 1	-30	 30;
	 27	 66	 0.0218493033981	 0.643070689127	-5e-07	 50	 50	 50	 0.98778	 0	 1	-30	 30;
	 30	 67	 0.0214628861182	 0.485476874372	-5e-07	 66	 66	 66	 1	 0	 1	-30	 30;
	 30	 67	 0.0211668452803	 0.474653195433	-5e-07	 67	 67	 67	 1	 0	 1	-30	 30;
	 31	 68	 0.0404404426658	 0.796594669873	-5e-07	 40	 40	 40	 0.9625	 0	 1	-30	 30;
	 32	 68	 0.0383170167085	 0.869999160803	-5e-07	 37	 37	 37	 0.975	 0	 1	-30	 30;
	 33	 69	 0.0539738688496	 0.996106503408	-5e-07	 32	 32	 32	 1	 0	 1	-30	 30;
	 33	 69	 0.0566573101837	 1.00148666329	-5e-07	 32	 32	 32	 1	 0	 1	-30	 30;
	 34	 70	 0.0281873795681	 0.64618776925	-5e-07	 49	 49	 49	 0.975	 0	 1	-30	 30;
	 16	 71	 0.0169546861145	 0.624685969925	-5e-07	 51	 51	 51	 1	 0	 1	-30	 30;
	 16	 71	 0.0161417475118	 0.627529661737	-5e-07	 51	 51	 51	 1	 0	 1	-30	 30;
	 36	 39	 0.00823115382865	 0.380965848994	-5e-07	 83	 83	 83	 1	 0	 1	-30	 30;
	 37	 38	 0.00837761643211	 0.3885621119	-5e-07	 82	 82	 82	 1	 0	 1	-30	 30;
	 72	 40	 0.0386733768997	 0.567641261098	 0.00481907266862	 56	 56	 56	 1.05042016807	 0	 1	-30	 30;
	 41	 77	 0.0208781178742	 0.39007711561	-5e-07	 81	 81	 81	 1.04545	 0	 1	-30	 30;
	 41	 78	 0.0199750640004	 0.403615404542	-5e-07	 79	 79	 79	 1.04545	 0	 1	-30	 30;
	 41	 79	 0.011355667952	 0.207730050042	-5e-07	 152	 152	 152	 1.04345	 0	 1	-30	 30;
	 41	 80	 0.0199433206906	 0.365134074753	-5e-07	 87	 87	 87	 1.04545	 0	 1	-30	 30;
	 41	 81	 0.0195236665624	 0.37978995806	-5e-07	 84	 84	 84	 1.04545	 0	 1	-30	 30;
	 7	 42	 0.0127629342931	 0.290811086092	 0.00362390955409	 109	 109	 109	 0.956525897939	 0	 1	-30	 30;
	 43	 9	 0.00167256115684	 0.0906622081921	-5e-07	 349	 349	 349	 1.0909	 0	 1	-30	 30;
	 43	 10	 0.00181451113989	 0.0924484662054	-5e-07	 342	 342	 342	 1.0909	 0	 1	-30	 30;
	 43	 11	 0.00159356017588	 0.0848818291226	-5e-07	 373	 373	 373	 1.0909	 0	 1	-30	 30;
	 44	 18	 0.00118715303738	 0.082076358131	-5e-07	 385	 385	 385	 1	 0	 1	-30	 30;
	 44	 18	 0.00110793118174	 0.0880052972012	-5e-07	 359	 359	 359	 1.0111	 0	 1	-30	 30;
	 44	 18	 0.0011796531206	 0.084835830307	-5e-07	 373	 373	 373	 1.0111	 0	 1	-30	 30;
	 44	 18	 0.00111240936409	 0.0871837483794	-5e-07	 363	 363	 363	 1	 0	 1	-30	 30;
	 45	 21	 0.00110042163172	 0.0813155810067	-5e-07	 389	 389	 389	 1.03393	 0	 1	-30	 30;
	 45	 21	 0.001062310409	 0.0790253407022	-5e-07	 400	 400	 400	 1.03393	 0	 1	-30	 30;
	 73	 4	 0.0217315496085	 0.334004775288	-5e-07	 95	 95	 95	 1.0454	 0	 1	-30	 30;
	 73	 5	 0.0211141590262	 0.331653592828	-5e-07	 96	 96	 96	 1.0454	 0	 1	-30	 30;
	 73	 6	 0.0215973087586	 0.330586237654	-5e-07	 96	 96	 96	 1.0454	 0	 1	-30	 30;
	 73	 52	 0.0931479898343	 1.0980800167	-5e-07	 29	 29	 29	 1	 0	 1	-30	 30;
	 83	 74	 0.0252429764183	 0.575548811998	-5e-07	 55	 55	 55	 1.04545454545	 0	 1	-30	 30;
	 83	 74	 0.025221855705	 0.612858893058	-5e-07	 52	 52	 52	 1.04545454545	 0	 1	-30	 30;
	 83	 75	 0.0157688297999	 0.54729424292	-5e-07	 58	 58	 58	 1.04545454545	 0	 1	-30	 30;
	 83	 75	 0.017654208052	 0.632016454179	-5e-07	 50	 50	 50	 1.04545454545	 0	 1	-30	 30;
	 83	 76	 0.0202438439064	 0.60095791384	-5e-07	 53	 53	 53	 1.04545454545	 0	 1	-30	 30;
	 83	 76	 0.0200884343519	 0.573160319367	-5e-07	 56	 56	 56	 1.04545454545	 0	 1	-30	 30;
	 16	 85	 0.0034678246923	 0.0652470141431	-5e-07	 484	 484	 484	 1.0105	 0	 1	-30	 30;
	 48	 85	 0.0155350492854	 0.299212721524	 0	 106	 106	 106	 1	 0	 1	-30	 30;
	 49	 85	 0.0143646938459	 0.289110320124	 0	 110	 110	 110	 1	 0	 1	-30	 30;
	 16	 86	 0.00300336193405	 0.0547801196656	-5e-07	 576	 576	 576	 1.0105	 0	 1	-30	 30;
	 48	 86	 0.0169557225009	 0.307314050218	 0	 103	 103	 103	 1	 0	 1	-30	 30;
	 84	 86	 0.0166495320394	 0.310440787237	 0	 102	 102	 102	 1	 0	 1	-30	 30;
	 18	 87	 0.000493432887135	 0.0803595352979	-5e-07	 394	 394	 394	 0.98778	 0	 1	-30	 30;
	 57	 87	 0.0179182475745	 0.588963984822	 0	 54	 54	 54	 1	 0	 1	-30	 30;
	 58	 87	 0.0189246408554	 0.573702322003	 0	 56	 56	 56	 1	 0	 1	-30	 30;
	 18	 88	 0.000939107490119	 0.0966773860122	-5e-07	 327	 327	 327	 0.97556	 0	 1	-30	 30;
	 57	 88	 0.0169110752609	 0.551221465985	 0	 58	 58	 58	 1	 0	 1	-30	 30;
	 58	 88	 0.018180937307	 0.552568133665	 0	 58	 58	 58	 1	 0	 1	-30	 30;
	 59	 89	 0.00734912203177	 0.400073817352	 0	 79	 79	 79	 1	 0	 1	-30	 30;
	 60	 89	 0.00735771486409	 0.445093881954	 0	 71	 71	 71	 1	 0	 1	-30	 30;
	 90	 19	 0.00226681762035	 0.519867410901	 0.0718457190065	 61	 61	 61	 1.01245317404	 0	 1	-30	 30;
	 59	 90	 0.00798521357007	 0.402136619595	 0	 79	 79	 79	 1	 0	 1	-30	 30;
	 60	 90	 0.00825959848793	 0.419836017292	 0	 76	 76	 76	 1	 0	 1	-30	 30;
];

mpc_regionR3.gencost = [
%	2           startup     shutdown    n           c(n-1)...c0 
	 2	 0	 0	 3	 0	 0.001	 0;
	 2	 0	 0	 3	 0	 0.001	 0;
	 2	 0	 0	 3	 0	 0.001	 0;
	 2	 0	 0	 3	 0	 0.001	 0;
	 2	 0	 0	 3	 0	 0.001	 0;
	 2	 0	 0	 3	 0	 0.001	 0;
	 2	 0	 0	 3	 0	 0.001	 0;
	 2	 0	 0	 3	 0	 0.001	 0;
	 2	 0	 0	 3	 0	 0.001	 0;
	 2	 0	 0	 3	 0	 0.001	 0;
	 2	 0	 0	 3	 0	 0.001	 0;
	 2	 100	 0	 3	 0	 12.021005	 0;
	 2	 0	 0	 3	 0	 0.001	 0;
	 2	 0	 0	 3	 0	 0.001	 0;
	 2	 0	 0	 3	 0	 0.001	 0;
	 2	 0	 0	 3	 0	 0.001	 0;
];


% ---------- Interregional Tie-Line Information ----------
% Each row: {From_Region (string), To_Region (string), Branch_Data (1x13 array)}
% Branch_Data: {fbus, tbus, r, x, b, rateA, rateB, rateC, ratio, angle, status, angmin, angmax}

interregional_tielines_total = {
	{'mpc_regionR3', 'mpc_regionR2', [ 35	 27	 0.0383996458529	 0.156477061172	 0.0190922336807	 152	 152	 152	 0	 0	 1	-30	 30]},
	{'mpc_regionR1', 'mpc_regionR2', [ 39	 37	 0.00791666807699	 0.0572760613928	 0.0898752712113	 429	 429	 429	 0	 0	 1	-30	 30]},
	{'mpc_regionR1', 'mpc_regionR2', [ 39	 37	 0.0082603860242	 0.0566848080727	 0.0913350015336	 416	 416	 416	 0	 0	 1	-30	 30]},
	{'mpc_regionR1', 'mpc_regionR2', [ 39	 38	 0.01493876248	 0.0704094566506	 0.106127778136	 331	 331	 331	 0	 0	 1	-30	 30]},
	{'mpc_regionR3', 'mpc_regionR2', [ 46	 38	 0.00471877332513	 0.0376735130684	 0.0714420340517	 456	 456	 456	 0	 0	 1	-30	 30]},
	{'mpc_regionR3', 'mpc_regionR2', [ 46	 38	 0.00464160583745	 0.0377672696763	 0.0658089057264	 461	 461	 461	 0	 0	 1	-30	 30]},
};

